IEEE 30 Bus/IEEE_30_Power_seq_MVA.txt

SYMMETRICAL COMPONENT POWERS BY CIRCUIT ELEMENT (first 3 phases)                                     Excess Power

Element             Term    P1(MW)   Q1(Mvar)       P2         Q2      P0      Q0       P_Norm      Q_Norm     P_Emerg    Q_Emerg

"Vsource.source"     1     -260.9       16.6        0.0        0.0     0.0     0.0
"Vsource.source"     2        0.0        0.0        0.0        0.0     0.0     0.0
"Line.1-2"           1      173.2      -21.2        0.0        0.0     0.0     0.0       77.0       -9.4       28.9       -3.5
"Line.1-2"           2     -168.0       30.9        0.0        0.0     0.0     0.0
"Line.1-3"           1       87.7        4.6        0.0        0.0     0.0     0.0        0.0        0.0        0.0        0.0
"Line.1-3"           2      -84.6        2.4        0.0        0.0     0.0     0.0
"Line.2-4"           1       43.6        4.0        0.0        0.0     0.0     0.0        0.0        0.0        0.0        0.0
"Line.2-4"           2      -42.6       -4.8        0.0        0.0     0.0     0.0
"Line.3-4"           1       82.2       -3.6        0.0        0.0     0.0     0.0        0.0        0.0        0.0        0.0
"Line.3-4"           2      -81.3        5.2        0.0        0.0     0.0     0.0
"Line.2-5"           1       82.4        1.8        0.0        0.0     0.0     0.0        0.0        0.0        0.0        0.0
"Line.2-5"           2      -79.4        6.2        0.0        0.0     0.0     0.0
"Line.2-6"           1       60.3        0.6        0.0        0.0     0.0     0.0        0.0        0.0        0.0        0.0
"Line.2-6"           2      -58.4        1.3        0.0        0.0     0.0     0.0
"Line.4-6"           1       72.1      -15.9        0.0        0.0     0.0     0.0        0.0        0.0        0.0        0.0
"Line.4-6"           2      -71.5       17.2        0.0        0.0     0.0     0.0
"Line.5-7"           1      -14.8       11.8        0.0        0.0     0.0     0.0        0.0        0.0        0.0        0.0
"Line.5-7"           2       14.9      -13.4        0.0        0.0     0.0     0.0
"Line.6-7"           1       38.1       -3.1        0.0        0.0     0.0     0.0        0.0        0.0        0.0        0.0
"Line.6-7"           2      -37.7        2.5        0.0        0.0     0.0     0.0
"Line.6-8"           1       29.6       -7.3        0.0        0.0     0.0     0.0        0.0        0.0        0.0        0.0
"Line.6-8"           2      -29.5        6.7        0.0        0.0     0.0     0.0
"Line.12-14"         1        7.9        2.4        0.0        0.0     0.0     0.0        0.0        0.0        0.0        0.0
"Line.12-14"         2       -7.8       -2.3        0.0        0.0     0.0     0.0
"Line.12-15"         1       17.9        6.9        0.0        0.0     0.0     0.0        0.0        0.0        0.0        0.0
"Line.12-15"         2      -17.7       -6.5        0.0        0.0     0.0     0.0
"Line.12-16"         1        7.3        3.5        0.0        0.0     0.0     0.0        0.0        0.0        0.0        0.0
"Line.12-16"         2       -7.2       -3.3        0.0        0.0     0.0     0.0
"Line.14-15"         1        1.6        0.7        0.0        0.0     0.0     0.0        0.0        0.0        0.0        0.0
"Line.14-15"         2       -1.6       -0.7        0.0        0.0     0.0     0.0
"Line.16-17"         1        3.7        1.5        0.0        0.0     0.0     0.0        0.0        0.0        0.0        0.0
"Line.16-17"         2       -3.7       -1.5        0.0        0.0     0.0     0.0
"Line.15-18"         1        6.0        1.6        0.0        0.0     0.0     0.0        0.0        0.0        0.0        0.0
"Line.15-18"         2       -6.0       -1.6        0.0        0.0     0.0     0.0
"Line.18-19"         1        2.8        0.7        0.0        0.0     0.0     0.0        0.0        0.0        0.0        0.0
"Line.18-19"         2       -2.8       -0.7        0.0        0.0     0.0     0.0
"Line.19-20"         1       -6.7       -2.7        0.0        0.0     0.0     0.0        0.0        0.0        0.0        0.0
"Line.19-20"         2        6.7        2.8        0.0        0.0     0.0     0.0
"Line.10-20"         1        9.0        3.7        0.0        0.0     0.0     0.0        0.0        0.0        0.0        0.0
"Line.10-20"         2       -8.9       -3.5        0.0        0.0     0.0     0.0
"Line.10-17"         1        5.3        4.3        0.0        0.0     0.0     0.0        0.0        0.0        0.0        0.0
"Line.10-17"         2       -5.3       -4.3        0.0        0.0     0.0     0.0
"Line.10-21"         1       15.8       10.0        0.0        0.0     0.0     0.0        0.0        0.0        0.0        0.0
"Line.10-21"         2      -15.7       -9.8        0.0        0.0     0.0     0.0
"Line.10-22"         1        7.6        4.6        0.0        0.0     0.0     0.0        0.0        0.0        0.0        0.0
"Line.10-22"         2       -7.6       -4.5        0.0        0.0     0.0     0.0
"Line.21-22"         1       -1.8       -1.4        0.0        0.0     0.0     0.0        0.0        0.0        0.0        0.0
"Line.21-22"         2        1.8        1.4        0.0        0.0     0.0     0.0
"Line.15-23"         1        5.1        3.0        0.0        0.0     0.0     0.0        0.0        0.0        0.0        0.0
"Line.15-23"         2       -5.0       -2.9        0.0        0.0     0.0     0.0
"Line.22-24"         1        5.7        3.0        0.0        0.0     0.0     0.0        0.0        0.0        0.0        0.0
"Line.22-24"         2       -5.7       -3.0        0.0        0.0     0.0     0.0
"Line.23-24"         1        1.8        1.3        0.0        0.0     0.0     0.0        0.0        0.0        0.0        0.0
"Line.23-24"         2       -1.8       -1.3        0.0        0.0     0.0     0.0
"Line.24-25"         1       -1.2        2.1        0.0        0.0     0.0     0.0        0.0        0.0        0.0        0.0
"Line.24-25"         2        1.2       -2.0        0.0        0.0     0.0     0.0
"Line.25-26"         1        3.5        2.4        0.0        0.0     0.0     0.0        0.0        0.0        0.0        0.0
"Line.25-26"         2       -3.5       -2.3        0.0        0.0     0.0     0.0
"Line.25-27"         1       -4.7       -0.3        0.0        0.0     0.0     0.0        0.0        0.0        0.0        0.0
"Line.25-27"         2        4.8        0.4        0.0        0.0     0.0     0.0
"Line.27-29"         1        6.2        1.7        0.0        0.0     0.0     0.0        0.0        0.0        0.0        0.0
"Line.27-29"         2       -6.1       -1.5        0.0        0.0     0.0     0.0
"Line.27-30"         1        7.1        1.7        0.0        0.0     0.0     0.0        0.0        0.0        0.0        0.0
"Line.27-30"         2       -6.9       -1.4        0.0        0.0     0.0     0.0
"Line.29-30"         1        3.7        0.6        0.0        0.0     0.0     0.0        0.0        0.0        0.0        0.0
"Line.29-30"         2       -3.7       -0.5        0.0        0.0     0.0     0.0
"Line.8-28"          1       -0.5       -0.5        0.0        0.0     0.0     0.0        0.0        0.0        0.0        0.0
"Line.8-28"          2        0.6       -3.8        0.0        0.0     0.0     0.0
"Line.6-28"          1       18.7        0.1        0.0        0.0     0.0     0.0        0.0        0.0        0.0        0.0
"Line.6-28"          2      -18.6       -1.2        0.0        0.0     0.0     0.0
"Transformer.6-9"    1       27.7       -8.3        0.0        0.0     0.0     0.0        0.0        0.0        0.0        0.0
"Transformer.6-9"    2      -27.7       10.0        0.0        0.0     0.0     0.0
"Transformer.6-10"   1       15.8        0.1        0.0        0.0     0.0     0.0        0.0        0.0        0.0        0.0
"Transformer.6-10"   2      -15.8        1.2        0.0        0.0     0.0     0.0
"Transformer.9-11"   1        0.0      -15.8        0.0        0.0     0.0     0.0        0.0        0.0        0.0        0.0
"Transformer.9-11"   2        0.0       16.2        0.0        0.0     0.0     0.0
"Transformer.9-10"   1       27.7        5.8        0.0        0.0     0.0     0.0        0.0        0.0        0.0        0.0
"Transformer.9-10"   2      -27.7       -5.0        0.0        0.0     0.0     0.0
"Transformer.4-12"   1       44.2       13.9        0.0        0.0     0.0     0.0        0.0        0.0        0.0        0.0
"Transformer.4-12"   2      -44.2       -9.3        0.0        0.0     0.0     0.0
"Transformer.12-13"  1        0.0      -11.0        0.0        0.0     0.0     0.0        0.0        0.0        0.0        0.0
"Transformer.12-13"  2        0.0       11.1        0.0        0.0     0.0     0.0
"Transformer.28-27"  1       18.0        5.0        0.0        0.0     0.0     0.0        0.0        0.0        0.0        0.0
"Transformer.28-27"  2      -18.0       -3.7        0.0        0.0     0.0     0.0
"Capacitor.b10"      1        0.0      -20.8        0.0        0.0     0.0     0.0        0.0        0.0        0.0        0.0
"Capacitor.b10"      2        0.0        0.0        0.0        0.0     0.0     0.0
"Capacitor.b24"      1        0.0       -4.5        0.0        0.0     0.0     0.0        0.0        0.0        0.0        0.0
"Capacitor.b24"      2        0.0        0.0        0.0        0.0     0.0     0.0
"Load.b2"            1       21.7       12.7        0.0        0.0     0.0     0.0
"Load.b3"            1        2.4        1.2        0.0        0.0     0.0     0.0
"Load.b4"            1        7.6        1.6        0.0        0.0     0.0     0.0
"Load.b5"            1       94.2       19.0        0.0        0.0     0.0     0.0
"Load.b7"            1       22.8       10.9        0.0        0.0     0.0     0.0
"Load.b8"            1       30.0       30.0        0.0        0.0     0.0     0.0
"Load.b10"           1        5.8        2.0        0.0        0.0     0.0     0.0
"Load.b12"           1       11.2        7.5        0.0        0.0     0.0     0.0
"Load.b14"           1        6.2        1.6        0.0        0.0     0.0     0.0
"Load.b15"           1        8.2        2.5        0.0        0.0     0.0     0.0
"Load.b16"           1        3.5        1.8        0.0        0.0     0.0     0.0
"Load.b17"           1        9.0        5.8        0.0        0.0     0.0     0.0
"Load.b18"           1        3.2        0.9        0.0        0.0     0.0     0.0
"Load.b19"           1        9.5        3.4        0.0        0.0     0.0     0.0
"Load.b20"           1        2.2        0.7        0.0        0.0     0.0     0.0
"Load.b21"           1       17.5       11.2        0.0        0.0     0.0     0.0
"Load.b23"           1        3.2        1.6        0.0        0.0     0.0     0.0
"Load.b24"           1        8.7        6.7        0.0        0.0     0.0     0.0
"Load.b26"           1        3.5        2.3        0.0        0.0     0.0     0.0
"Load.b29"           1        2.4        0.9        0.0        0.0     0.0     0.0
"Load.b30"           1       10.6        1.9        0.0        0.0     0.0     0.0
"Generator.b2"       1      -40.0      -50.0        0.0        0.0     0.0     0.0
"Generator.b5"       1        0.0      -37.0        0.0        0.0     0.0     0.0
"Generator.b8"       1        0.0      -36.2        0.0        0.0     0.0     0.0
"Generator.b11"      1        0.0      -16.2        0.0        0.0     0.0     0.0
"Generator.b13"      1        0.0      -11.1        0.0        0.0     0.0     0.0

Total Circuit Losses =   17.6 +j   33.1
